576
Lattice="40.77441621359023 -10.85644245895179 -0.6609718907816341 -10.84414116797826 40.455697847185014 -1.2496401239760841 -0.1924785314247733 -0.2768511141369651 9.441033033073856" Properties=species:S:1:pos:R:3 pbc="T T T"
H       13.26182308       5.06094016       3.79435875
H       26.85622485      16.79660899       1.47956382
H       29.02556032      -1.95947230       3.80262385
H       17.80896284      24.39189979       2.40933969
H        2.47357500      14.36517926       6.09283292
H       -0.50854523      32.57360760       4.71570665
H       16.75820852      23.96064004       3.77219875
H        3.55376580      13.03861321       5.57865562
H       -1.63340066      31.42761735       3.95815678
H       12.67111077       3.38195813       3.66926499
H       28.01764054      15.51590817       1.07980656
H       29.94422549      -2.72830335       5.08061924
H       11.78046928      29.52242848       2.98870702
H       10.08597353      14.64259270       4.83939395
H       -2.49548350      24.93673751       7.55504374
H       18.43643578      -0.66270286       3.58617925
H       20.31447885      14.14158584       3.93392022
H       32.69558477       4.68621556       7.41275074
H       11.05678642      31.79339154       3.61798589
H       12.32426250      13.82310403       4.15617372
H       -4.06065047      23.06311189       7.42085346
H       19.24165500      -2.86728180       4.33509224
H       17.94622323      14.57315518       3.50722482
H       34.44050570       6.38357169       7.15220409
H        3.11717582      33.97603301       5.56401269
H       16.77693178      20.72815359       2.85659966
H       -0.77330256      14.71336717       6.37295097
H       27.31342606      -5.22480839       6.41231916
H       12.04069821       7.98288102       3.24379761
H       30.57267761      14.03404134       5.55938885
H        4.63741746      35.73343745       4.77929273
H       17.57995832      18.43038958       3.13263019
H       -3.09270793      15.39956525       6.94062669
H       25.51930545      -6.86361870       5.92421833
H       11.60991901      10.41638268       3.34322794
H       32.96103198      13.71592011       6.12090413
H       15.59103712      27.04593101       2.74410880
H        5.43583570      13.63707778       4.46243437
H       -1.93868239      29.40207812       5.02910906
H       14.33901453       1.90054213       3.27000560
H       24.77799137      15.92778657       2.05133059
H       31.38392087       0.35333795       4.98243669
H       12.41383637      28.06138648       1.15478341
H        7.50606710      15.25659855       1.86569847
H       -0.99843718      26.32488865       6.91851467
H       17.36656021       0.41152017       1.66683538
H       22.32541382      13.55873003       3.56169106
H       30.99681075       3.50395693       6.94567233
H       16.67905178      22.52315915       1.81899967
H        1.37430207      17.25195486       3.33306804
H        1.80827462      32.34827649       4.68003980
H       15.16798505       6.52932447       0.30679894
H       29.26075853      14.66845852       3.36822349
H       26.26099798      -1.14304455       6.52036677
H       30.76570008      -1.59288270       3.96699115
H       12.27511840       4.61046182       2.42442797
H       28.23423353      16.48247008       2.55362304
H       -0.01677896      31.66515912       3.27588750
H       17.24093639      25.64735029       3.52723976
H        2.00764064      13.36823481       4.73473401
H       18.63320592       2.24830956       0.69611026
H       23.43508524      11.59632658       4.13485017
H       27.78795472       2.68497954       8.49821304
H       11.29246883      26.08311347       0.41816228
H        5.23437357      18.09037010       1.16700748
H        2.32322851      27.42863186       7.97540986
H       11.88024695      24.91404535      -0.78241533
H        6.35522787      16.78250616       0.74462559
H        1.27077207      26.23942356       7.18307314
H       17.80342561       2.87209959       8.74414167
H       23.47609234      12.68137977       5.53617172
H       28.73394724       3.77573325       7.46300430
H        8.25047012      34.20964407       1.36397822
H       17.29640664      13.61295969       1.57643948
H       33.76127503       7.47958017       5.25531475
H       22.00658835      -5.10447192       6.47480207
H       12.55626160      14.96292310       1.86264014
H       -3.55666000      21.85152537       5.61227615
H       10.66230891      33.59837723       1.32758769
H       15.60116174      11.91019804       1.82312147
H       33.09723535       9.79302820       5.33949212
H       19.57968418      -4.55299408       6.53332046
H       14.26646799      16.66595796       1.85023748
H       -2.87385048      19.53777405       5.78592346
H       14.70594541      33.40911369       1.99234883
H       10.54696580      11.78311536       0.81087712
H       -6.31539599      25.13607849       4.39167021
H        4.42365450      35.98507559       2.58038488
H       18.99666448      17.62834179       0.65774127
H       36.05626825       4.23549283       3.79014173
H       15.45290955      31.11891457       1.41572241
H        8.31678172      12.62595676       1.47680672
H       -4.75899447      27.05240134       4.57173490
H       14.44762846      -2.22405345       3.25015922
H       21.39522474      17.21476817       1.12299095
H       34.30788454       2.49380163       4.07798061
H        7.38566635      32.72195024       3.37975836
H       15.36021050      17.20939123      -0.34743441
H       -2.97055631      18.33089913       3.79163836
H       23.23760561      -3.77670954       3.97168873
H       14.52070244      11.02215208       0.22369175
H       33.29288972      10.74863353       3.01862541
H        5.88149825      30.96550069       4.25429907
H       14.54386719      19.53802919      -0.62942335
H       -0.68151600      17.65811255       3.23183491
H       24.99247684      -2.12767938       4.53475929
H       14.97500469       8.62669046       0.16200852
H       30.88285928      11.00893585       2.51411639
H       13.51753597      23.46790634       0.03626096
H        3.30767433      17.53682947       2.32670223
H        2.68761894      29.37247536       6.76690336
H       16.51079988       4.79797930      -0.07519877
H       26.80481871      12.22620175       4.62227091
H       27.16446626       0.70072608       7.51080915
H       29.71855489       3.16902645      -0.65887565
H       17.52625326       1.45762104      -0.43790786
H       24.74003508      11.45732185       5.33191032
H        0.86325349      27.44954059      -0.87408699
H       12.31538820      26.62657148      -0.91994903
H        6.70198431      17.82695244       2.13338302
H        4.94740058      12.76028814       1.41638244
H       16.67797048      26.57580244       7.83975628
H       -2.76334661      28.79946953      -0.87632311
H       23.96748904      16.82510605       7.28942974
H       13.51526855       2.51145065      -0.23141290
H       31.64623209      -0.29499948       0.80751902
H       23.92469569      15.83936639       5.84770288
H       12.34726913       1.75338933       7.84085520
H       30.88679667       0.42845732      -0.59342503
H        4.54762944      11.90115149      -0.08141197
H       15.57060755      27.83835389      -0.90820893
H       -2.47722645      30.54259250      -0.61538766
H       29.66399084      11.36949790       7.52396252
H       14.09499030       9.36867201       4.96354392
H       23.98734105      -1.85566105      -0.37148558
H       -1.63273419      17.27853503       8.43417900
H       14.18765197      20.43871193       4.32895016
H        1.37795312      34.05787352      -1.29312158
H       31.98270172      10.57532487       7.87230632
H       13.61796160      11.76320442       5.08020393
H       21.89433705      -3.61511381       8.51509274
H       -3.74564726      18.22923919      -0.55789532
H       14.61340229      18.03252520       4.57086582
H        2.75828592      35.55135454       7.39298001
H       33.52857801       2.25577403      -0.28939773
H       20.81298658      17.02576488       5.41312601
H       16.67632371      -1.05900971       6.60826225
H       -5.05386090      26.59827873      -0.67987959
H        7.58714791      12.79290773       6.73667297
H       13.34594127      31.14681490       5.77136884
H       35.26500446       4.00102192      -0.57117699
H       18.45123148      17.65472011       4.98331828
H       17.29344516      -3.30019119       7.38349296
H       34.10761587      13.85430362      -1.39829566
H        9.85808017      12.05294971       6.12406364
H       12.72368391      33.47397685       6.35632921
H       26.77918289      14.82003443       7.49888139
H       12.74274434       5.21349333       7.66908883
H       28.40294228      -1.61498166       0.30282413
H        1.77741313      13.91467872       0.64069714
H       15.92976551      24.65022320       6.77774338
H       -0.35690910      31.10048773      -0.08274162
H       27.81803151      11.90090610      -0.25157059
H       14.92009354       7.48235013       5.66080073
H       25.08679497      -1.02005383       1.84387392
H        0.61963775      17.22674267      -0.65348454
H       13.51712990      22.41143204       5.04059698
H        3.08613899      30.78468796       1.28479899
H       21.40350154      13.69754732       8.32526130
H       16.14129398       1.00650165       6.38067379
H       30.41709484       2.85122619       2.93507007
H        6.15107282      12.88380992       8.67396755
H       14.15487848      29.13788859       6.98329598
H       -1.56331517      26.11093800       2.04548083
H       -3.39618557      29.55612544       0.56672174
H        3.28636961      12.20777995       1.13024546
H       16.24756373      28.13100306       7.09863924
H       30.58414786      -1.29257491      -0.23677841
H       25.50378668      16.39437024       6.47190982
H       12.01103623       3.31638756       8.65238571
H        1.82522167      17.36742665       6.85558962
H       11.55735775      23.49049386       4.66724729
H        2.51752918      27.67717123       3.19101335
H       25.94648973      11.69637692       1.48624551
H       16.98106623       6.34958721       5.23843449
H       26.16758842       1.74562164       4.10181960
H       25.90682531      10.65839933       0.05042067
H       15.81195648       6.06873682       3.93563173
H       25.71861716       0.03271388       4.10427881
H        3.50407671      17.89272089       7.08600532
H       12.53448696      23.98737855       3.27390591
H        2.84800345      29.41294019       3.28936392
H       -3.75724868      19.34115019       1.52901794
H       13.63058504      17.35103068       6.52076782
H        6.37126382      33.68803685       6.84349644
H       32.26460979       9.70322452       0.33915362
H       14.82694318      12.56714044       6.81898349
H       20.77886728      -3.81460510       1.12406752
H       -4.34460993      21.65832603       1.22149960
H       11.87310834      15.70482977       6.70322000
H        8.74274330      33.04525149       6.74271821
H       32.88174225       7.36941468       0.40853185
H       16.55700787      14.18775224       6.38354283
H       18.40781957      -3.13875620       1.15413004
H       32.75771827      13.88808536       1.42504702
H       11.13818563      11.11594197       8.53444585
H       13.13302021      33.90295152      -0.01576822
H       -4.05849593      15.18995299       2.47828249
H       17.56837995      18.84359247       7.59742637
H        5.95881094      34.21920178       0.58251907
H       30.49163195      14.77506619       0.96410219
H       11.57506231       8.68168614       8.38196740
H       25.91454192      -5.08044305       1.71734139
H       -1.73357276      14.48027049       1.99072736
H       17.18403077      21.27558019       7.30210204
H        4.39815410      32.49406156       1.34785239
H       33.37857844       6.34503999       2.51174358
H       17.22475534      15.28571369       8.36297741
H       14.41224721      -2.86928054       0.95527007
H       -4.88374199      23.09642592       2.82821101
H       11.73086980      15.15463178      -0.53773309
H        9.80933781      32.26912095      -0.49613911
H       31.65115429       4.62158728       2.78072849
H       19.74249866      14.90606061      -0.68180822
H       13.82004531      -0.57486663       0.20614588
H       -3.25284446      24.93017205       2.85401452
H        9.45022294      15.94922659       0.02487264
H       10.40074909      29.94365384      -1.12628458
H       23.07312622      12.65511220      -0.16848203
H       16.49653537       2.96812021       5.39920591
H       28.31147755       2.21557039       3.40511185
H        5.01465659      16.23779399       7.64887250
H       11.88016607      26.90990765       5.07368275
H        0.39488199      27.02630802       2.58335981
H        3.40406211      28.48975915       1.88414419
H        2.28030777      18.25821788       8.31938576
H       11.22981058      25.03726463       3.86344274
H       25.08346509       1.10568351       2.84766707
H       24.39621647      11.08013415       0.88140329
H       17.08537517       4.87724867       4.24802341
C       13.66290015      30.15625466       2.12553696
C        9.05069900      13.71369944       3.19312292
C       -3.46954012      26.12071650       6.01087241
C       16.37594430      -1.27981187       3.35361831
C       21.04724747      15.60580583       2.50091876
C       33.33373070       3.48171076       5.71632248
C       12.40578821      30.37744801       2.72617661
C       10.19496579      14.02174213       3.95147200
C       -3.30077018      24.97568930       6.82047764
C       17.73621312      -1.49825876       3.64442285
C       20.04294588      14.87318913       3.17193880
C       33.40187487       4.59158252       6.58861380
C       12.00096769      31.65559783       3.09171727
C       11.44601393      13.55215483       3.56982633
C       -4.18479590      23.90883427       6.74603781
C       18.19106097      -2.74247417       4.07562956
C       18.69766699      15.11547601       2.93504220
C       34.39333537       5.55272803       6.44791762
C        4.02746539      33.69756017       5.03500803
C       16.50072551      19.98000259       2.11380641
C       -1.26282727      15.51569642       5.82010587
C       26.40742224      -4.90927488       5.89461808
C       12.58362335       8.66287372       2.58626980
C       31.17514988      13.32678073       4.98745626
C        4.88527384      34.69040029       4.58918898
C       16.94226308      18.67882951       2.28517787
C       -2.55481980      15.90313626       6.13902981
C       25.40076831      -5.82310555       5.62172456
C       12.34643625      10.02683042       2.64292889
C       32.51388179      13.13459166       5.31502616
C       15.15490799      26.24643687       2.14356695
C        4.94433339      14.49638752       4.00185280
C       -0.91975555      29.42394623       5.41805351
C       14.81233609       2.56342713       2.54391696
C       25.24567293      15.12440373       2.62221612
C       30.45112805       0.39949329       5.54640311
C       15.73213454      24.98281379       2.15298976
C        3.60680385      14.74958073       4.29213175
C       -0.07659833      30.47870778       5.09360962
C       14.28622349       3.83360613       2.33941596
C       26.63133240      15.01967318       2.66500415
C       29.53096780      -0.63607184       5.43131127
C       15.11381996      23.96530946       1.37754855
C        3.00553973      15.88025251       3.66418091
C        1.26146991      30.42879568       5.56689400
C       14.94829755       4.67578570       1.39743101
C       27.19151406      13.93695615       3.39141783
C       28.31293188      -0.51633467       6.15948431
C       13.99991509      26.55103613       1.40150957
C        5.70668551      15.27872945       3.11740450
C       -0.50728477      28.33218548       6.20512659
C       15.94108582       2.07095876       1.86333617
C       24.39173749      14.21872947       3.27879141
C       30.24160051       1.53969142       6.34528327
C       13.46177949      27.90872578       1.46801682
C        7.08653165      14.89511970       2.82017228
C       -1.41363373      27.20673460       6.40208602
C       16.44416196       0.73791789       2.17812076
C       22.94523182      14.38575739       3.17614226
C       31.25046075       2.59502409       6.37507771
C       15.67465155      22.62125123       1.37519178
C        1.62988011      16.31571718       3.86667449
C        2.22042384      31.44500031       5.16018659
C       14.61285033       6.07184898       1.14809893
C       28.63878864      13.76513094       3.49773009
C       27.23338456      -1.49791835       6.12212537
C       13.05730879       4.23716406       3.09955347
C       27.48159025      16.00415922       1.90855194
C       29.83891215      -1.78911647       4.52137761
C       16.94762060      24.72767353       3.00641905
C        2.87678035      13.82757089       5.22487654
C       -0.58080070      31.59510851       4.21688085
C        8.88674659      34.44059428       2.21774091
C       16.26025521      13.93045217       1.67452286
C       34.54116017       8.23576520       5.22524736
C       21.36486075      -5.35790237       5.63155643
C       13.59590753      14.64684144       1.82439491
C       -4.33019625      21.09446518       5.72042076
C       10.23704395      34.10563186       2.19241295
C       15.28088934      12.94818230       1.78833011
C       34.15786253       9.56660299       5.25965908
C       20.01018687      -5.04043751       5.65912297
C       14.57753747      15.62453338       1.81177921
C       -3.93847013      19.76135952       5.79815682
C       11.06609682      34.42291620       3.27878281
C       13.91263935      13.27391391       1.85512998
C       -5.68476042      21.46893217       5.78455106
C        8.33737681      35.08184099       3.33245165
C       15.94319830      15.29896313       1.72267049
C       -4.87830607      18.71473072       5.83625909
C        6.08252443      34.36723054       3.91871616
C       16.53272480      17.65921583       1.41313376
C       -3.17645145      16.95677398       5.44671257
C       24.25250827      -5.43708256       4.90630918
C       13.08675533      10.91959025       1.84451629
C       33.29122064      12.19347908       4.62757996
C       12.82134859      32.77143169       2.84054139
C       11.59234116      12.75767997       2.42283043
C       -5.26520216      23.91860504       5.83785835
C       17.31151919      -3.83786863       4.18794866
C       18.28787730      16.08400791       1.99419280
C       35.33659929       5.46804313       5.40585378
C       14.05749174      32.55893731       2.19990321
C       10.45148532      12.41903489       1.68892406
C       -5.47681969      25.08808300       5.08390624
C       15.96238460      -3.63401482       3.82791880
C       19.28610183      16.85841681       1.37074464
C       35.31211886       4.33371945       4.57810691
C       14.47812970      31.27866524       1.87760646
C        9.19772877      12.89156726       2.06222083
C       -4.60877069      26.16287673       5.18410295
C       15.50299309      -2.37759403       3.47506322
C       20.62687509      16.63053777       1.63010134
C       34.34258710       3.35815807       4.74117296
C        6.43853091      33.00596166       3.83543235
C       15.68242911      17.98688350       0.34557318
C       -2.47486691      17.56658816       4.38945310
C       24.11065493      -4.08752130       4.54577360
C       14.00915833      10.36953929       0.92867925
C       32.69504212      11.46027348       3.58781291
C        5.59710709      32.01587444       4.32886317
C       15.21793449      19.28735872       0.18967056
C       -1.17606149      17.18490845       4.08060930
C       25.09448984      -3.16062093       4.87071438
C       14.25158590       9.00298278       0.88593732
C       31.34433644      11.60112895       3.30456972
C        4.34357293      32.33176755       4.88310248
C       15.61820895      20.31675065       1.06486294
C       -0.52748761      16.16248653       4.80682509
C       26.27972506      -3.55622165       5.52268385
C       13.56478262       8.11280688       1.73922986
C       30.55766705      12.54394354       3.99319391
C       13.95741139      24.26851680       0.63365162
C        3.78410034      16.67082706       2.79427170
C        1.66249293      29.36247630       6.39253464
C       16.04545401       4.15750748       0.67921797
C       26.34084921      13.03231251       4.05087822
C       28.10102836       0.62966798       6.95072559
C       13.38092550      25.53581383       0.62641963
C        5.11660849      16.40372013       2.49399970
C        0.81061687      28.31885198       6.73592009
C       16.56374292       2.88195180       0.88283084
C       24.95424143      13.14727539       4.02091213
C       29.03366503       1.65540563       7.07994872
C       17.74045783       2.40804214       0.07134996
C       24.10543753      12.17133684       4.79232293
C       28.75691153       2.81503405       7.99982654
C       12.15632263      25.80581195      -0.20644458
C        5.89268226      17.31926980       1.58650808
C        1.29087367      27.23127008       7.66041957
C       29.98971340      13.23233588      -0.45584122
C       12.91963351       8.84129809       6.71571221
C       25.07215772      -3.35638037       0.74311253
C       -1.38846993      15.98656468       0.49924608
C       15.62543027      21.04232456       5.84533249
C        2.77202790      33.10835180       0.02998229
C       30.48286021      12.11777855      -1.15826487
C       13.47824204       9.74138133       5.78105466
C       23.97148103      -2.87982655       0.00507514
C       -1.98719495      17.05297473      -0.20940712
C       14.90601026      20.10130675       5.07762631
C        2.39117828      34.10490001      -0.89205646
C       31.78849040      11.66888428      -0.95991623
C       13.20642734      11.10277550       5.84276924
C       22.90800170      -3.71893673      -0.31808840
C       -3.29803605      17.43460593       0.03872323
C       15.14290318      18.73738862       5.21162464
C        3.27180081      35.08715620      -1.31684783
C       33.51449104       3.15244426       0.33106491
C       20.01484082      16.63890472       6.04661247
C       16.14311457      -1.48532415       7.45954675
C       -5.01480916      25.81365270       0.07510293
C        8.44981624      13.22556109       7.24427522
C       12.54767268      31.33223119       6.49114661
C       34.48019893       4.13108682       0.17159309
C       18.69453990      16.98354972       5.80552322
C       16.48964828      -2.76176408       7.88690819
C       -5.90717681      24.75750241       0.04066907
C        9.72734575      12.82257010       6.88366557
C       12.18640304      32.63741687       6.80450729
C       25.90269541      14.29708032       7.88559031
C       13.56844140       4.69551132       7.17890291
C       28.39728404      -0.75070317       0.96938023
C        2.54560795      14.46631695       0.09682050
C       15.05741929      25.17569839       6.38656992
C       -0.21843652      30.19515391       0.50980245
C       24.63456702      14.79431411       7.59931264
C       13.75210718       3.33796305       7.40894381
C       29.52743208       0.05773871       1.04334486
C        3.83142910      13.95074575      -0.00448375
C       14.85284815      26.51268512       6.70655878
C       -1.25413328      29.27357481       0.59710234
C       23.51734742      14.07219291       8.11049764
C       14.85972918       2.70392335       6.76954891
C       29.47753926       1.17524783       1.92738088
C        4.80826253      14.72511654      -0.68257743
C       13.66094548      27.12819295       6.24550042
C       -1.01706149      28.08784414       1.35544514
C       26.31768377      13.40833343      -0.80122034
C       14.40939967       5.46920795       6.35474306
C       27.22300946      -0.51061503       1.70405464
C        2.17855060      15.70789787      -0.45734989
C       14.14869408      24.42894518       5.61282360
C        1.03588215      30.02506410       1.12802202
C       27.68367274      12.95452907      -0.55202629
C       14.16965551       6.90294112       6.22550950
C       26.07479695      -1.39771326       1.52273214
C        0.82053345      16.20947331      -0.27818468
C       14.36232659      22.99330214       5.44610076
C        2.07361843      31.03364112       0.92447031
C       22.12037761      14.42113808       7.88977103
C       15.25785141       1.31670576       6.97283871
C       30.53432840       2.17202427       2.06844570
C        5.98964110      13.97547121       8.62516538
C       13.32481810      28.48976292       6.65256694
C       -1.95585292      26.98124345       1.48185361
C        4.17192218      12.63698013       0.64615967
C       15.83776931      27.23454227       7.58848902
C       -2.53993720      29.56447202      -0.12089310
C       24.50852447      16.03044696       6.75828902
C       12.80148905       2.62714692       8.32668828
C       30.72419113      -0.30029063       0.21142908
C       -4.80565378      19.58798347       1.37490799
C       13.91319662      16.30093799       6.54904661
C        7.11331921      34.27484529       7.38528517
C       33.32070086       9.45635541       0.41382224
C       14.53746873      13.61009506       6.71896900
C       20.05369052      -4.38888013       0.55073813
C       -5.14541986      20.92402742       1.21588823
C       12.90215307      15.35330385       6.67238196
C        8.45203449      33.90931038       7.33683588
C       33.67460590       8.11224848       0.47257935
C       15.53570612      14.54556121       6.48940679
C       18.71575786      -4.00940584       0.57381610
C       34.28911258      10.48127661       0.40893153
C       13.18233331      13.97980100       6.80795737
C        9.62671575      34.92596414      -1.41354023
C       35.01074341       7.70589056       0.63143501
C       15.26636842      15.92676084       6.45049973
C        6.90238495      35.68880691      -1.34421963
C       34.43027740       5.31634788       0.92716793
C       17.66218035      16.48110266       6.61337126
C       15.80578052      -3.38431570       8.95251918
C       -5.85664441      23.73801842       1.00466373
C       10.86242713      13.42478573       7.45365619
C       11.13087109      32.89630487       7.69217193
C       32.61297267      12.27328529       0.00038460
C       12.39571500      11.63230976       6.86567357
C       22.88486925      -5.04900315       0.13111185
C       -4.06035736      16.79517477       1.03615580
C       16.08342117      18.25540698       6.14240449
C        4.58982446      35.12221681      -0.82581744
C       32.12193546      13.39918883       0.68803212
C       11.79168200      10.73035891       7.75674159
C       23.97839121      -5.52194466       0.87946009
C       -3.47812526      15.71494914       1.72201777
C       16.82995644      19.19439893       6.87846524
C        4.96077021      34.16928701       0.14772511
C       30.85548778      13.89483223       0.43423991
C       12.02898819       9.37002022       7.66939836
C       25.06302730      -4.70395885       1.15013868
C       -2.18316066      15.31051793       1.44590549
C       16.62011484      20.55166076       6.71380622
C        4.07614154      33.18821089       0.56966003
C       33.40628758       5.45423162       1.88406945
C       18.00161754      15.63315574       7.68235082
C       14.94600788      -2.40853832       0.12679121
C       -4.88937024      23.82759279       2.02003926
C       10.67202339      14.43038991       8.41745629
C       10.62957831      32.08669411      -1.19052488
C       32.43376481       4.47207523       2.03612235
C       19.31986778      15.25754960       7.89957348
C       14.61080921      -1.13342314      -0.29512794
C       -3.96552166      24.86916322       2.03134142
C        9.58682339      15.14850723      -0.70284423
C       10.76305208      30.50773890       7.89781825
C       32.45534220       3.30066120       1.24775967
C       20.35992391      15.74487839       7.07850602
C       15.10144421      -0.76864580       8.09204421
C       -3.99564932      25.87871136       1.04553291
C        8.25499166      14.27359751       8.16735861
C       11.83590960      30.24059013       7.02687818
C       23.94191815      13.18531644      -0.56842615
C       15.67458287       3.47455816       5.91282081
C       28.31626737       1.38046577       2.69927252
C        4.24872006      15.68143183       8.19205940
C       12.77411601      26.39814954       5.43476895
C        0.23283357      27.93138383       1.99110120
C       25.21075196      12.68980775      -0.28901570
C       15.48649554       4.83521271       5.68572362
C       27.17908962       0.58421032       2.60059369
C        2.95658447      16.19086458       8.27870119
C       12.99332496      25.06769039       5.09180297
C        1.26782716      28.85915312       1.90105626
C        2.62203125      17.49520590       7.60325997
C       12.03023619      24.35638116       4.17904123
C        2.57546469      28.60072767       2.60122812
C       25.37598378      11.46785859       0.57453819
C       16.38762932       5.57320384       4.73066191
C       25.97474805       0.88155625       3.45386579
N       14.18899137      28.89402569       1.87571497
N        7.79347097      14.16428787       3.60971717
N       -2.61796998      27.22023749       5.93166161
N       15.83602413      -0.04696799       3.00214707
N       22.42330654      15.43487051       2.63187343
N       32.36564753       2.47893383       5.73142015
N        6.92963642      35.36603286       3.38956463
N       16.93102828      16.31534654       1.67504383
N       -4.48873971      17.35236537       5.82078533
N       12.43685418      34.06325563       3.26485606
N       12.88505638      12.31226363       1.98841609
N       -6.12704358      22.80965666       5.67326426
N        3.50078801      31.29266998       5.27583528
N       15.05847570      21.58782204       0.90282922
N        0.77734120      15.70112618       4.61619167
N       27.36581002      -2.70376195       5.69101942
N       13.78537518       6.74158188       1.87992585
N       29.18869748      12.62354277       3.73158646
N       28.70158616      13.74102312      -0.63585320
N       13.15104323       7.46929434       6.78549041
N       26.19354803      -2.57814945       1.02151419
N       -0.08947299      15.51479492       0.32285026
N       15.45105720      22.42588970       5.84729823
N        1.81115030      32.14115415       0.31052990
N       35.38750720       6.33721244       0.68430972
N       16.31730761      16.87130978       6.35403174
N        5.52672094      36.06232326      -1.29428156
N       33.94361295      11.84154522       0.27685947
N       12.15888099      13.02461005       7.01968503
N       10.97729794      34.51823693      -1.43073677
N       31.49978612       2.28421192       1.22031017
N       21.71714529      15.45462030       7.22920966
N       14.67196136       0.52804496       7.81107084
N       -3.13063970      26.96834588       0.94643251
N        6.98924165      14.77944339       8.46697185
N       12.10681149      28.91330037       6.68993046
